FoamFile
{
    version     2.0;
    format      ascii;
    class       dictionary;
    object      blockMeshDict;
}

convertToMeters 1;

vertices
(

    (0 .25 0)
    (4 .55 0)
    (4 0.95 0)
    (0 1.25 0)

    (0 .25 .4)
    (4 .55 .4)
    (4 0.95 .4)
    (0 1.25 .4)

    (6 .25 0)
    (6 1.25 0)

    (6 .25 .4)
    (6 1.25 .4)

    (-.5 .25 0)
    (-.5 1.25 0)

    (-.5 1.25 .4)
    (-.5 .25 .4)

);

blocks
(
    hex (12 0 3 13 15 4 7 14) (81 41 4) simpleGrading (.2 15 1)
    hex (0 1 2 3 4 5 6 7) (161 41 4) simpleGrading (5 15 1)
    hex (1 8 9 2 5 10 11 6) (51 41 4) simpleGrading (1 15 1)
);

boundary
(

    inlet
    {
        type wall;
        faces
        (
        	(13 12 15 14)
        );
    }

    outlet
    {
        type wall;
        faces
        (
        	(8 9 11 10)
        );
    }

    slip-top
    {
        type wall;
        faces
        (
        	(13 3 7 14)
        );
    }

    top
    {
        type wall;
        faces
        (  	
        	(9 2 6 11)
        );
    }

    slip-bottom
    {
        type wall;
        faces
        (
        	(15 12 0 4)
        );
    }

    bottom
    {
        type wall;
        faces
        (
        	(1 8 10 5)
        );
    }

    interface
    {
        type wall;
        faces
        (
        	(4 0 1 5)
            (7 6 2 3)
        );
    }

);
